REMARK  6 active torsions:
REMARK  status: ('A' for Active; 'I' for Inactive)
REMARK    1  A    between atoms: C_2  and  C_3 
REMARK    2  A    between atoms: C_3  and  O_4 
REMARK    3  A    between atoms: O_4  and  N_5 
REMARK       I    between atoms: N_5  and  C_6 
REMARK    4  A    between atoms: C_6  and  C_8 
REMARK    5  A    between atoms: C_15  and  N_16 
REMARK    6  A    between atoms: N_16  and  C_17 
ROOT
HETATM    1  O   UNK     0       2.667  -9.240   0.000  0.00  0.00    -0.218 OA
HETATM    2  C   UNK     0       4.001 -10.010   0.000  0.00  0.00     0.217 C 
ENDROOT
BRANCH   2   3
HETATM    3  C   UNK     0       5.335  -9.240   0.000  0.00  0.00     0.212 C 
BRANCH   3   4
HETATM    4  O   UNK     0       6.668 -10.010   0.000  0.00  0.00    -0.232 OA
BRANCH   4   5
HETATM    5  N   UNK     0       8.002  -9.240   0.000  0.00  0.00    -0.103 NA
HETATM    6  C   UNK     0       9.336 -10.010   0.000  0.00  0.00     0.235 C 
HETATM    7  O   UNK     0       9.336 -11.550   0.000  0.00  0.00    -0.167 OA
BRANCH   6   8
HETATM    8  C   UNK     0      10.669  -9.240   0.000  0.00  0.00     0.044 A 
HETATM    9  C   UNK     0      10.669  -7.700   0.000  0.00  0.00     0.039 A 
HETATM   10  C   UNK     0      12.003  -6.930   0.000  0.00  0.00     0.064 A 
HETATM   11  C   UNK     0      13.337  -7.700   0.000  0.00  0.00     0.147 A 
HETATM   12  F   UNK     0      14.671  -6.930   0.000  0.00  0.00    -0.206 F 
HETATM   13  C   UNK     0      13.337  -9.240   0.000  0.00  0.00     0.180 A 
HETATM   14  F   UNK     0      14.671 -10.010   0.000  0.00  0.00    -0.201 F 
HETATM   15  C   UNK     0      12.003 -10.010   0.000  0.00  0.00     0.110 A 
BRANCH  15  16
HETATM   16  N   UNK     0      12.003 -11.550   0.000  0.00  0.00    -0.246 NA
BRANCH  16  17
HETATM   17  C   UNK     0      13.337 -12.320   0.000  0.00  0.00     0.083 A 
HETATM   18  C   UNK     0      14.671 -11.550   0.000  0.00  0.00     0.053 A 
HETATM   19  C   UNK     0      16.004 -12.320   0.000  0.00  0.00     0.035 A 
HETATM   20  C   UNK     0      16.004 -13.860   0.000  0.00  0.00    -0.007 A 
HETATM   21  I   UNK     0      17.338 -14.630   0.000  0.00  0.00    -0.052 I 
HETATM   22  C   UNK     0      14.671 -14.630   0.000  0.00  0.00     0.086 A 
HETATM   23  C   UNK     0      13.337 -13.860   0.000  0.00  0.00     0.136 A 
HETATM   24  F   UNK     0      12.003 -14.630   0.000  0.00  0.00    -0.207 F 
ENDBRANCH  16  17
ENDBRANCH  15  16
ENDBRANCH   6   8
ENDBRANCH   4   5
ENDBRANCH   3   4
ENDBRANCH   2   3
TORSDOF 6
